                                  MODFLOW-2005     
      U.S. GEOLOGICAL SURVEY MODULAR FINITE-DIFFERENCE GROUND-WATER FLOW MODEL
                            VERSION 1.12.00 2/3/2017

 LIST FILE: EX2a-Sce1a-RevisedForQUAL2KW-STR.LST
                         UNIT    2

 OPENING EX2a-Sce1a-RevisedForQUAL2KW.BA6
 FILE TYPE:BAS6   UNIT    1   STATUS:OLD    
 FORMAT:FORMATTED              ACCESS:SEQUENTIAL          

 OPENING EX2a-Sce1a-RevisedForQUAL2KW.BC6
 FILE TYPE:BCF6   UNIT    7   STATUS:OLD    
 FORMAT:FORMATTED              ACCESS:SEQUENTIAL          

 OPENING EX2a-Sce1a-RevisedForQUAL2KW.WEL
 FILE TYPE:WEL   UNIT    4   STATUS:OLD    
 FORMAT:FORMATTED              ACCESS:SEQUENTIAL          

 OPENING EX2a-Sce1a-RevisedForQUAL2KW.RCH
 FILE TYPE:RCH   UNIT    8   STATUS:OLD    
 FORMAT:FORMATTED              ACCESS:SEQUENTIAL          

 OPENING EX2a-Sce1a-RevisedForQUAL2KW.PCG
 FILE TYPE:PCG   UNIT   23   STATUS:OLD    
 FORMAT:FORMATTED              ACCESS:SEQUENTIAL          

 OPENING EX2a-Sce1a-RevisedForQUAL2KW.OC
 FILE TYPE:OC   UNIT   14   STATUS:OLD    
 FORMAT:FORMATTED              ACCESS:SEQUENTIAL          

 OPENING EX2a-Sce1a-RevisedForQUAL2KW.STR
 FILE TYPE:STR   UNIT   15   STATUS:OLD    
 FORMAT:FORMATTED              ACCESS:SEQUENTIAL          

 OPENING EX2a-Sce1a-RevisedForQUAL2KW.dis
 FILE TYPE:DIS   UNIT   10   STATUS:OLD    
 FORMAT:FORMATTED              ACCESS:SEQUENTIAL          

 OPENING EX2a-Sce1a-RevisedForQUAL2KW.fhd
 FILE TYPE:DATA   UNIT   41   STATUS:UNKNOWN
 FORMAT:FORMATTED              ACCESS:SEQUENTIAL          

 OPENING EX2a-Sce1a-RevisedForQUAL2KW.fdn
 FILE TYPE:DATA   UNIT   42   STATUS:UNKNOWN
 FORMAT:FORMATTED              ACCESS:SEQUENTIAL          

 BAS -- BASIC PACKAGE, VERSION 7, 5/2/2005 INPUT READ FROM UNIT    1
 
 MODFLOW was compiled using mixed precision
 Precision of REAL variables:           6
 Precision of DOUBLE PRECISION variables:          15

 DISCRETIZATION INPUT DATA READ FROM UNIT   10
    1 LAYERS         5 ROWS         6 COLUMNS
    1 STRESS PERIOD(S) IN SIMULATION
 MODEL TIME UNIT IS DAYS
 MODEL LENGTH UNIT IS UNDEFINED
  Confining bed flag for each layer:
   0



                               DELR
 READING ON UNIT   10 WITH FORMAT: (10F13.0)           
   10.000       10000.       10.000       10000.       10000.       10.000    



                               DELC
 READING ON UNIT   10 WITH FORMAT: (10F13.0)           
   1.0000       200.00       200.00       200.00       1.0000    

 TOP ELEVATION OF LAYER 1 =   60.0000    

   MODEL LAYER BOTTOM EL. =   0.00000     FOR LAYER   1


 STRESS PERIOD     LENGTH       TIME STEPS     MULTIPLIER FOR DELT    SS FLAG
 ----------------------------------------------------------------------------
        1         1.000000          1                    1.000         SS

 STEADY-STATE SIMULATION



 
 #Data set for an illustrative problem for conjunctive water management with a s 
 #layer aquifer and two surface water diversions, steady state. Nov. 24, 92.     



                     BOUNDARY ARRAY FOR LAYER   1
 READING ON UNIT    1 WITH FORMAT: (20I4)              

 AQUIFER HEAD WILL BE SET TO   999.00     AT ALL NO-FLOW NODES (IBOUND=0).



                       INITIAL HEAD FOR LAYER   1
 READING ON UNIT    1 WITH FORMAT: (10F13.0)           

 OUTPUT CONTROL IS SPECIFIED ONLY AT TIME STEPS FOR WHICH OUTPUT IS DESIRED
 HEADS WILL BE SAVED WITH FORMAT: (10(1X1PE13.5))     
 SAVED HEADS WILL BE LABELED
 DRAWDOWN WILL BE SAVED WITH FORMAT: (10(1X1PE13.5))     
 SAVED DRAWDOWN WILL BE LABELED
 COMPACT CELL-BY-CELL BUDGET FILES WILL BE WRITTEN
 AUXILIARY DATA WILL BE SAVED IN CELL-BY-CELL BUDGET FILES
 HEAD PRINT FORMAT CODE IS   0    DRAWDOWN PRINT FORMAT CODE IS   0
 HEADS WILL BE SAVED ON UNIT   41    DRAWDOWNS WILL BE SAVED ON UNIT   42

 BCF -- BLOCK-CENTERED FLOW PACKAGE, VERSION 7, 5/2/2005
         INPUT READ FROM UNIT  7
 STEADY-STATE SIMULATION
 HEAD AT CELLS THAT CONVERT TO DRY=   9990.0    
 WETTING CAPABILITY IS NOT ACTIVE
      LAYER  LAYER-TYPE CODE     INTERBLOCK T
      --------------------------------------------
         1            1          0 -- HARMONIC    

 COLUMN TO ROW ANISOTROPY =   1.00000    



              HYD. COND. ALONG ROWS FOR LAYER   1
 READING ON UNIT    7 WITH FORMAT: (10F13.0)           

 WEL -- WELL PACKAGE, VERSION 7, 5/2/2005 INPUT READ FROM UNIT    4
 No named parameters
 MAXIMUM OF      2 ACTIVE WELLS AT ONE TIME


     0 Well parameters

 RCH -- RECHARGE PACKAGE, VERSION 7, 5/2/2005 INPUT READ FROM UNIT    8
 No named parameters
 OPTION 1 -- RECHARGE TO TOP LAYER


     0 Recharge parameters

 STR -- STREAM PACKAGE, VERSION 7, 5/2/2005 INPUT READ FROM UNIT   15
 No named parameters
 MAXIMUM OF     14 ACTIVE STREAM NODES AT ONE TIME
 NUMBER OF STREAM SEGMENTS IS      5
 NUMBER OF STREAM TRIBUTARIES IS      2
 DIVERSIONS FROM STREAMS HAVE BEEN SPECIFIED
 STREAM STAGES WILL BE CALCULATED USING A CONSTANT OF 86400.0000


     0 Stream parameters

 PCG -- CONJUGATE-GRADIENT SOLUTION PACKAGE, VERSION 7, 5/2/2005
 MAXIMUM OF   1000 CALLS OF SOLUTION ROUTINE
 MAXIMUM OF     30 INTERNAL ITERATIONS PER CALL TO SOLUTION ROUTINE
 MATRIX PRECONDITIONING TYPE :    1



                                    SOLUTION BY THE CONJUGATE-GRADIENT METHOD
                                   -------------------------------------------
                    MAXIMUM NUMBER OF CALLS TO PCG ROUTINE =     1000
                        MAXIMUM ITERATIONS PER CALL TO PCG =       30
                               MATRIX PRECONDITIONING TYPE =        1
        RELAXATION FACTOR (ONLY USED WITH PRECOND. TYPE 1) =    0.10000E+01
 PARAMETER OF POLYNOMIAL PRECOND. = 2 (2) OR IS CALCULATED :        2
                         HEAD CHANGE CRITERION FOR CLOSURE =    0.10000E-02
                     RESIDUAL CHANGE CRITERION FOR CLOSURE =    0.86000E+01
            PCG HEAD AND RESIDUAL CHANGE PRINTOUT INTERVAL =        5
     PRINTING FROM SOLVER IS LIMITED(1) OR SUPPRESSED (>1) =        0
                            STEADY-STATE DAMPING PARAMETER =    0.10000E+01
                               TRANSIENT DAMPING PARAMETER =    0.10000E+01
1
                            STRESS PERIOD NO.    1, LENGTH =   1.000000    
                            -----------------------------------------------

                              NUMBER OF TIME STEPS =     1

                               MULTIPLIER FOR DELT =     1.000

                            INITIAL TIME STEP SIZE =   1.000000    

 WELL NO.  LAYER   ROW   COL   STRESS RATE         
 --------------------------------------------------
      1      1      2      2     -0.4118E+05
      2      1      4      5      -2.000    

      2 WELLS



                           RECHARGE
 READING ON UNIT    8 WITH FORMAT:  (6F5.0)            

    LAYER   ROW    COL    SEGMENT   REACH   STREAMFLOW      STREAM    STREAMBED     STREAMBED BOT  STREAMBED TOP
                           NUMBER   NUMBER                   STAGE   CONDUCTANCE      ELEVATION      ELEVATION         
 ----------------------------------------------------------------------------------------------------------------------
       1      3      1        1        1        0.6240E+06   53.07      80.00            49.70        50.10    
       1      3      2        1        2         0.000       53.05     0.4000E+05        49.50        49.90    
       1      3      2        1        3         0.000       53.05      0.000            49.50        50.00    
       1      3      2        2        1        0.1000E+06   53.05      800.0            49.50        49.90    
       1      3      2        3        1        -1.000       53.05      0.000            49.50        49.90    
       1      3      2        3        2         0.000       53.05     0.4000E+05        49.40        49.80    
       1      3      3        3        3         0.000       53.05      0.000            49.00        49.80    
       1      3      4        3        4         0.000       53.04     0.4000E+05        49.30        49.70    
       1      3      4        3        5         0.000       53.04      0.000            49.20        49.60    
       1      3      4        4        1        0.9200E+05   53.04      800.0            49.30        49.70    
       1      3      4        5        1        -1.000       53.02      0.000            49.10        49.50    
       1      3      4        5        2         0.000       53.04     0.4000E+05        49.20        49.60    
       1      3      5        5        3         0.000       53.02     0.8000E+05        49.20        49.60    
       1      3      6        5        4         0.000       53.01      0.000            49.10        49.50    

     14 STREAM REACHES

    LAYER   ROW    COL    SEGMENT   REACH        STREAM             STREAM          ROUGH
                           NUMBER   NUMBER        WIDTH              SLOPE          COEF.
   --------------------------------------------------------------------------------------------------------------
       1      3      1        1        1          10.00           0.2000E-02      0.3000E-01
       1      3      2        1        2          10.00           0.2000E-02      0.3000E-01
       1      3      2        1        3          10.00           0.2000E-02      0.3000E-01
       1      3      2        2        1          10.00           0.2000E-02      0.3000E-01
       1      3      2        3        1          10.00           0.2000E-02      0.3000E-01
       1      3      2        3        2          10.00           0.2000E-02      0.3000E-01
       1      3      3        3        3          10.00           0.2000E-02      0.3000E-01
       1      3      4        3        4          10.00           0.2000E-02      0.3000E-01
       1      3      4        3        5          10.00           0.2000E-02      0.3000E-01
       1      3      4        4        1          10.00           0.2000E-02      0.3000E-01
       1      3      4        5        1          10.00           0.2000E-02      0.3000E-01
       1      3      4        5        2          10.00           0.2000E-02      0.3000E-01
       1      3      5        5        3          10.00           0.2000E-02      0.3000E-01
       1      3      6        5        4          10.00           0.2000E-02      0.3000E-01

                              MAXIMUM NUMBER OF TRIBUTARY STREAMS IS      2

                     STREAM SEGMENT               TRIBUTARY STREAM SEGMENT NUMBERS
                        1                        0    0
                        2                        0    0
                        3                        1    0
                        4                        0    0
                        5                        3    0

          DIVERSION SEGMENT NUMBER          UPSTREAM SEGMENT NUMBER
                        1                                0
                        2                                1
                        3                                0
                        4                                3
                        5                                0
 
 SOLVING FOR HEAD 


     7 CALLS TO PCG ROUTINE FOR TIME STEP   1 IN STRESS PERIOD    1
    26 TOTAL ITERATIONS

 MAXIMUM HEAD CHANGE FOR EACH ITERATION (1 INDICATES THE FIRST INNER ITERATION):

    HEAD CHANGE    HEAD CHANGE    HEAD CHANGE    HEAD CHANGE    HEAD CHANGE 
   LAYER,ROW,COL  LAYER,ROW,COL  LAYER,ROW,COL  LAYER,ROW,COL  LAYER,ROW,COL
 ---------------------------------------------------------------------------
  1  -6.665      0   1.361      0  0.2919      0 -0.3954E-01  0 -0.1649E-01
   (  1,  2,  2)  (  1,  5,  3)  (  1,  2,  3)  (  1,  1,  3)  (  1,  2,  6)
  0  0.9965E-03  1  0.2481      0  0.4159E-01  0 -0.2690E-01  0 -0.3323E-02
   (  1,  4,  1)  (  1,  3,  1)  (  1,  2,  3)  (  1,  5,  3)  (  1,  1,  3)
  0 -0.1011E-02  0  0.7248E-04  1 -0.2362      0 -0.4318E-01  0  0.1027E-01
   (  1,  2,  6)  (  1,  4,  1)  (  1,  2,  6)  (  1,  5,  3)  (  1,  1,  3)
  0 -0.1028E-02  0  0.9640E-04  1  0.2489E-01  0  0.5616E-02  0 -0.3135E-03
   (  1,  3,  3)  (  1,  2,  6)  (  1,  2,  6)  (  1,  5,  3)  (  1,  1,  3)
  1 -0.1373E-01  0 -0.2014E-02  0  0.4809E-03  1  0.1751E-02  0  0.2516E-03
   (  1,  1,  5)  (  1,  5,  3)  (  1,  1,  3)  (  1,  2,  6)  (  1,  5,  3)
  1 -0.6835E-03
   (  1,  2,  6)

 MAXIMUM RESIDUAL FOR EACH ITERATION (1 INDICATES THE FIRST INNER ITERATION):

    RESIDUAL       RESIDUAL       RESIDUAL       RESIDUAL       RESIDUAL    
   LAYER,ROW,COL  LAYER,ROW,COL  LAYER,ROW,COL  LAYER,ROW,COL  LAYER,ROW,COL
 ---------------------------------------------------------------------------
  1   30.74      0   14.95      0   3.720      0  0.2316      0  0.2641E-01
   (  1,  3,  2)  (  1,  3,  1)  (  1,  3,  1)  (  1,  2,  6)  (  1,  3,  2)
  0  0.1244E-02  1   1.786      0  0.7869      0  0.2657      0 -0.1761E-01
   (  1,  3,  2)  (  1,  3,  1)  (  1,  3,  1)  (  1,  3,  1)  (  1,  3,  5)
  0 -0.2700E-02  0 -0.1754E-03  1  0.4953      0  0.4032      0  0.1056    
   (  1,  3,  4)  (  1,  3,  4)  (  1,  3,  4)  (  1,  3,  4)  (  1,  3,  4)
  0 -0.1058E-01  0 -0.5956E-02  1 -0.6371E-01  0 -0.5278E-01  0 -0.7952E-02
   (  1,  2,  5)  (  1,  2,  5)  (  1,  3,  4)  (  1,  3,  4)  (  1,  3,  4)
  1  0.4776E-01  0  0.3710E-01  0  0.1094E-01  1 -0.7862E-02  0 -0.5123E-02
   (  1,  3,  4)  (  1,  3,  4)  (  1,  3,  4)  (  1,  3,  5)  (  1,  3,  4)
  1  0.3396E-02
   (  1,  3,  5)



 OUTPUT CONTROL FOR STRESS PERIOD    1   TIME STEP    1
    SAVE HEAD FOR ALL LAYERS
    SAVE DRAWDOWN FOR ALL LAYERS
    SAVE BUDGET
    PRINT BUDGET

            LAYER      ROW     COLUMN     STREAM    REACH      FLOW INTO     FLOW INTO     FLOW OUT OF     HEAD IN
                                          NUMBER    NUMBER    STREAM REACH    AQUIFER      STREAM REACH     STREAM


               1         3         1         1         1      624000.0       26.48376       623973.5          50.75
               1         3         2         1         2      623973.5       23829.50       600144.0          50.54
               1         3         2         1         3      600144.0       0.000000       500144.0          50.60
               1         3         2         2         1      100000.0       137.2192       99862.78          50.12
               1         3         2         3         1      500144.0       0.000000       500144.0          50.47
               1         3         2         3         2      500144.0       16681.06       483462.9          50.36
               1         3         3         3         3      483462.9       0.000000       483462.9          50.36
               1         3         4         3         4      483462.9       3196.106       480266.8          50.25
               1         3         4         3         5      480266.8       0.000000       388266.8          50.12
               1         3         4         4         1      92000.00      -215.2557       92215.26          49.91
               1         3         4         5         1      388266.8       0.000000       388266.8          49.99
               1         3         4         5         2      388266.8      -3447.113       391714.0          50.09
               1         3         5         5         3      391714.0      -480.0415       392194.0          50.09
               1         3         6         5         4      392194.0       0.000000       392194.0          49.99

 HEAD WILL BE SAVED ON UNIT   41 AT END OF TIME STEP    1, STRESS PERIOD    1

 DRAWDOWN WILL BE SAVED ON UNIT   42 AT END OF TIME STEP    1, STRESS PERIOD    1
1
  VOLUMETRIC BUDGET FOR ENTIRE MODEL AT END OF TIME STEP    1, STRESS PERIOD   1
  ------------------------------------------------------------------------------

     CUMULATIVE VOLUMES      L**3       RATES FOR THIS TIME STEP      L**3/T
     ------------------                 ------------------------

           IN:                                      IN:
           ---                                      ---
             STORAGE =           0.0000               STORAGE =           0.0000
       CONSTANT HEAD =           0.0000         CONSTANT HEAD =           0.0000
               WELLS =           0.0000                 WELLS =           0.0000
            RECHARGE =        1464.3196              RECHARGE =        1464.3196
      STREAM LEAKAGE =       43870.3672        STREAM LEAKAGE =       43870.3672

            TOTAL IN =       45334.6875              TOTAL IN =       45334.6875

          OUT:                                     OUT:
          ----                                     ----
             STORAGE =           0.0000               STORAGE =           0.0000
       CONSTANT HEAD =           0.0000         CONSTANT HEAD =           0.0000
               WELLS =       41184.0000                 WELLS =       41184.0000
            RECHARGE =           0.0000              RECHARGE =           0.0000
      STREAM LEAKAGE =        4142.4102        STREAM LEAKAGE =        4142.4102

           TOTAL OUT =       45326.4102             TOTAL OUT =       45326.4102

            IN - OUT =           8.2773              IN - OUT =           8.2773

 PERCENT DISCREPANCY =           0.02     PERCENT DISCREPANCY =           0.02






         TIME SUMMARY AT END OF TIME STEP    1 IN STRESS PERIOD    1
                    SECONDS     MINUTES      HOURS       DAYS        YEARS
                    -----------------------------------------------------------
   TIME STEP LENGTH  86400.      1440.0      24.000      1.0000     2.73785E-03
 STRESS PERIOD TIME  86400.      1440.0      24.000      1.0000     2.73785E-03
         TOTAL TIME  86400.      1440.0      24.000      1.0000     2.73785E-03
1

 Run end date and time (yyyy/mm/dd hh:mm:ss): 2020/05/13 18:52:48
 Elapsed run time:  0.000 Seconds

